validation_cases/use_cases/uc1/check_live3_pglib_opf_case30_ieee__api.powermodels.json
{
    "ac": true,
    "baseMVA": 100,
    "branch": {
        "1": {
            "angmax": 1.0471975511965976,
            "angmin": -1.0471975511965976,
            "b_fr": 0.026400000000000007,
            "b_to": 0.026400000000000007,
            "br_r": 0.0192,
            "br_status": 1,
            "br_x": 0.057499999999999996,
            "f_bus": 1,
            "g_fr": 0.0,
            "g_to": 0.0,
            "index": 1,
            "rate_a": 1.38,
            "rate_b": 0.0,
            "rate_c": 0.0,
            "shift": 0.0,
            "t_bus": 2,
            "tap": 1.0,
            "transformer": false
        },
        "10": {
            "angmax": 1.0471975511965976,
            "angmin": -1.0471975511965976,
            "b_fr": 0.0045,
            "b_to": 0.0045,
            "br_r": 0.012,
            "br_status": 1,
            "br_x": 0.042,
            "f_bus": 6,
            "g_fr": 0.0,
            "g_to": 0.0,
            "index": 10,
            "rate_a": 1.4799999999999998,
            "rate_b": 0.0,
            "rate_c": 0.0,
            "shift": 0.0,
            "t_bus": 8,
            "tap": 1.0,
            "transformer": false
        },
        "11": {
            "angmax": 1.0471975511965976,
            "angmin": -1.0471975511965976,
            "b_fr": 0.0,
            "b_to": 0.0,
            "br_r": 0.12310000000000001,
            "br_status": 1,
            "br_x": 0.2559,
            "f_bus": 12,
            "g_fr": 0.0,
            "g_to": 0.0,
            "index": 11,
            "rate_a": 0.29,
            "rate_b": 0.0,
            "rate_c": 0.0,
            "shift": 0.0,
            "t_bus": 14,
            "tap": 1.0,
            "transformer": false
        },
        "12": {
            "angmax": 1.0471975511965976,
            "angmin": -1.0471975511965976,
            "b_fr": 0.0,
            "b_to": 0.0,
            "br_r": 0.0662,
            "br_status": 1,
            "br_x": 0.1304,
            "f_bus": 12,
            "g_fr": 0.0,
            "g_to": 0.0,
            "index": 12,
            "rate_a": 0.29,
            "rate_b": 0.0,
            "rate_c": 0.0,
            "shift": 0.0,
            "t_bus": 15,
            "tap": 1.0,
            "transformer": false
        },
        "13": {
            "angmax": 1.0471975511965976,
            "angmin": -1.0471975511965976,
            "b_fr": 0.0,
            "b_to": 0.0,
            "br_r": 0.09450000000000001,
            "br_status": 1,
            "br_x": 0.19870000000000002,
            "f_bus": 12,
            "g_fr": 0.0,
            "g_to": 0.0,
            "index": 13,
            "rate_a": 0.3,
            "rate_b": 0.0,
            "rate_c": 0.0,
            "shift": 0.0,
            "t_bus": 16,
            "tap": 1.0,
            "transformer": false
        },
        "14": {
            "angmax": 1.0471975511965976,
            "angmin": -1.0471975511965976,
            "b_fr": 0.0,
            "b_to": 0.0,
            "br_r": 0.22100000000000003,
            "br_status": 1,
            "br_x": 0.19969999999999996,
            "f_bus": 14,
            "g_fr": 0.0,
            "g_to": 0.0,
            "index": 14,
            "rate_a": 0.2,
            "rate_b": 0.0,
            "rate_c": 0.0,
            "shift": 0.0,
            "t_bus": 15,
            "tap": 1.0,
            "transformer": false
        },
        "15": {
            "angmax": 1.0471975511965976,
            "angmin": -1.0471975511965976,
            "b_fr": 0.0,
            "b_to": 0.0,
            "br_r": 0.0524,
            "br_status": 1,
            "br_x": 0.1923,
            "f_bus": 16,
            "g_fr": 0.0,
            "g_to": 0.0,
            "index": 15,
            "rate_a": 0.38,
            "rate_b": 0.0,
            "rate_c": 0.0,
            "shift": 0.0,
            "t_bus": 17,
            "tap": 1.0,
            "transformer": false
        },
        "16": {
            "angmax": 1.0471975511965976,
            "angmin": -1.0471975511965976,
            "b_fr": 0.0,
            "b_to": 0.0,
            "br_r": 0.10730000000000002,
            "br_status": 1,
            "br_x": 0.2185,
            "f_bus": 15,
            "g_fr": 0.0,
            "g_to": 0.0,
            "index": 16,
            "rate_a": 0.29,
            "rate_b": 0.0,
            "rate_c": 0.0,
            "shift": 0.0,
            "t_bus": 18,
            "tap": 1.0,
            "transformer": false
        },
        "17": {
            "angmax": 1.0471975511965976,
            "angmin": -1.0471975511965976,
            "b_fr": 0.0,
            "b_to": 0.0,
            "br_r": 0.0639,
            "br_status": 1,
            "br_x": 0.1292,
            "f_bus": 18,
            "g_fr": 0.0,
            "g_to": 0.0,
            "index": 17,
            "rate_a": 0.29,
            "rate_b": 0.0,
            "rate_c": 0.0,
            "shift": 0.0,
            "t_bus": 19,
            "tap": 1.0,
            "transformer": false
        },
        "18": {
            "angmax": 1.0471975511965976,
            "angmin": -1.0471975511965976,
            "b_fr": 0.0,
            "b_to": 0.0,
            "br_r": 0.034,
            "br_status": 1,
            "br_x": 0.068,
            "f_bus": 19,
            "g_fr": 0.0,
            "g_to": 0.0,
            "index": 18,
            "rate_a": 0.29,
            "rate_b": 0.0,
            "rate_c": 0.0,
            "shift": 0.0,
            "t_bus": 20,
            "tap": 1.0,
            "transformer": false
        },
        "19": {
            "angmax": 1.0471975511965976,
            "angmin": -1.0471975511965976,
            "b_fr": 0.0,
            "b_to": 0.0,
            "br_r": 0.09359999999999999,
            "br_status": 1,
            "br_x": 0.209,
            "f_bus": 10,
            "g_fr": 0.0,
            "g_to": 0.0,
            "index": 19,
            "rate_a": 0.3,
            "rate_b": 0.0,
            "rate_c": 0.0,
            "shift": 0.0,
            "t_bus": 20,
            "tap": 1.0,
            "transformer": false
        },
        "2": {
            "angmax": 1.0471975511965976,
            "angmin": -1.0471975511965976,
            "b_fr": 0.0204,
            "b_to": 0.0204,
            "br_r": 0.0452,
            "br_status": 1,
            "br_x": 0.1652,
            "f_bus": 1,
            "g_fr": 0.0,
            "g_to": 0.0,
            "index": 2,
            "rate_a": 1.52,
            "rate_b": 0.0,
            "rate_c": 0.0,
            "shift": 0.0,
            "t_bus": 3,
            "tap": 1.0,
            "transformer": false
        },
        "20": {
            "angmax": 1.0471975511965976,
            "angmin": -1.0471975511965976,
            "b_fr": 0.0,
            "b_to": 0.0,
            "br_r": 0.0324,
            "br_status": 1,
            "br_x": 0.0845,
            "f_bus": 10,
            "g_fr": 0.0,
            "g_to": 0.0,
            "index": 20,
            "rate_a": 0.33,
            "rate_b": 0.0,
            "rate_c": 0.0,
            "shift": 0.0,
            "t_bus": 17,
            "tap": 1.0,
            "transformer": false
        },
        "21": {
            "angmax": 1.0471975511965976,
            "angmin": -1.0471975511965976,
            "b_fr": 0.0,
            "b_to": 0.0,
            "br_r": 0.0348,
            "br_status": 1,
            "br_x": 0.0749,
            "f_bus": 10,
            "g_fr": 0.0,
            "g_to": 0.0,
            "index": 21,
            "rate_a": 0.3,
            "rate_b": 0.0,
            "rate_c": 0.0,
            "shift": 0.0,
            "t_bus": 21,
            "tap": 1.0,
            "transformer": false
        },
        "22": {
            "angmax": 1.0471975511965976,
            "angmin": -1.0471975511965976,
            "b_fr": 0.0,
            "b_to": 0.0,
            "br_r": 0.0727,
            "br_status": 1,
            "br_x": 0.1499,
            "f_bus": 10,
            "g_fr": 0.0,
            "g_to": 0.0,
            "index": 22,
            "rate_a": 0.29,
            "rate_b": 0.0,
            "rate_c": 0.0,
            "shift": 0.0,
            "t_bus": 22,
            "tap": 1.0,
            "transformer": false
        },
        "23": {
            "angmax": 1.0471975511965976,
            "angmin": -1.0471975511965976,
            "b_fr": 0.0,
            "b_to": 0.0,
            "br_r": 0.0116,
            "br_status": 1,
            "br_x": 0.0236,
            "f_bus": 21,
            "g_fr": 0.0,
            "g_to": 0.0,
            "index": 23,
            "rate_a": 0.29,
            "rate_b": 0.0,
            "rate_c": 0.0,
            "shift": 0.0,
            "t_bus": 22,
            "tap": 1.0,
            "transformer": false
        },
        "24": {
            "angmax": 1.0471975511965976,
            "angmin": -1.0471975511965976,
            "b_fr": 0.0,
            "b_to": 0.0,
            "br_r": 0.1,
            "br_status": 1,
            "br_x": 0.20199999999999996,
            "f_bus": 15,
            "g_fr": 0.0,
            "g_to": 0.0,
            "index": 24,
            "rate_a": 0.29,
            "rate_b": 0.0,
            "rate_c": 0.0,
            "shift": 0.0,
            "t_bus": 23,
            "tap": 1.0,
            "transformer": false
        },
        "25": {
            "angmax": 1.0471975511965976,
            "angmin": -1.0471975511965976,
            "b_fr": 0.0,
            "b_to": 0.0,
            "br_r": 0.11499999999999999,
            "br_status": 1,
            "br_x": 0.179,
            "f_bus": 22,
            "g_fr": 0.0,
            "g_to": 0.0,
            "index": 25,
            "rate_a": 0.25999999999999995,
            "rate_b": 0.0,
            "rate_c": 0.0,
            "shift": 0.0,
            "t_bus": 24,
            "tap": 1.0,
            "transformer": false
        },
        "26": {
            "angmax": 1.0471975511965976,
            "angmin": -1.0471975511965976,
            "b_fr": 0.0,
            "b_to": 0.0,
            "br_r": 0.132,
            "br_status": 1,
            "br_x": 0.27,
            "f_bus": 23,
            "g_fr": 0.0,
            "g_to": 0.0,
            "index": 26,
            "rate_a": 0.29,
            "rate_b": 0.0,
            "rate_c": 0.0,
            "shift": 0.0,
            "t_bus": 24,
            "tap": 1.0,
            "transformer": false
        },
        "27": {
            "angmax": 1.0471975511965976,
            "angmin": -1.0471975511965976,
            "b_fr": 0.0,
            "b_to": 0.0,
            "br_r": 0.18849999999999997,
            "br_status": 1,
            "br_x": 0.3292,
            "f_bus": 24,
            "g_fr": 0.0,
            "g_to": 0.0,
            "index": 27,
            "rate_a": 0.27,
            "rate_b": 0.0,
            "rate_c": 0.0,
            "shift": 0.0,
            "t_bus": 25,
            "tap": 1.0,
            "transformer": false
        },
        "28": {
            "angmax": 1.0471975511965976,
            "angmin": -1.0471975511965976,
            "b_fr": 0.0,
            "b_to": 0.0,
            "br_r": 0.2544,
            "br_status": 1,
            "br_x": 0.38,
            "f_bus": 25,
            "g_fr": 0.0,
            "g_to": 0.0,
            "index": 28,
            "rate_a": 0.25,
            "rate_b": 0.0,
            "rate_c": 0.0,
            "shift": 0.0,
            "t_bus": 26,
            "tap": 1.0,
            "transformer": false
        },
        "29": {
            "angmax": 1.0471975511965976,
            "angmin": -1.0471975511965976,
            "b_fr": 0.0,
            "b_to": 0.0,
            "br_r": 0.1093,
            "br_status": 1,
            "br_x": 0.2087,
            "f_bus": 25,
            "g_fr": 0.0,
            "g_to": 0.0,
            "index": 29,
            "rate_a": 0.28,
            "rate_b": 0.0,
            "rate_c": 0.0,
            "shift": 0.0,
            "t_bus": 27,
            "tap": 1.0,
            "transformer": false
        },
        "3": {
            "angmax": 1.0471975511965976,
            "angmin": -1.0471975511965976,
            "b_fr": 0.018400000000000003,
            "b_to": 0.018400000000000003,
            "br_r": 0.056999999999999995,
            "br_status": 1,
            "br_x": 0.1737,
            "f_bus": 2,
            "g_fr": 0.0,
            "g_to": 0.0,
            "index": 3,
            "rate_a": 1.39,
            "rate_b": 0.0,
            "rate_c": 0.0,
            "shift": 0.0,
            "t_bus": 4,
            "tap": 1.0,
            "transformer": false
        },
        "30": {
            "angmax": 1.0471975511965976,
            "angmin": -1.0471975511965976,
            "b_fr": 0.0,
            "b_to": 0.0,
            "br_r": 0.2198,
            "br_status": 1,
            "br_x": 0.41530000000000006,
            "f_bus": 27,
            "g_fr": 0.0,
            "g_to": 0.0,
            "index": 30,
            "rate_a": 0.28,
            "rate_b": 0.0,
            "rate_c": 0.0,
            "shift": 0.0,
            "t_bus": 29,
            "tap": 1.0,
            "transformer": false
        },
        "31": {
            "angmax": 1.0471975511965976,
            "angmin": -1.0471975511965976,
            "b_fr": 0.0,
            "b_to": 0.0,
            "br_r": 0.3202,
            "br_status": 1,
            "br_x": 0.6027,
            "f_bus": 27,
            "g_fr": 0.0,
            "g_to": 0.0,
            "index": 31,
            "rate_a": 0.28,
            "rate_b": 0.0,
            "rate_c": 0.0,
            "shift": 0.0,
            "t_bus": 30,
            "tap": 1.0,
            "transformer": false
        },
        "32": {
            "angmax": 1.0471975511965976,
            "angmin": -1.0471975511965976,
            "b_fr": 0.0,
            "b_to": 0.0,
            "br_r": 0.2399,
            "br_status": 1,
            "br_x": 0.45329999999999987,
            "f_bus": 29,
            "g_fr": 0.0,
            "g_to": 0.0,
            "index": 32,
            "rate_a": 0.28,
            "rate_b": 0.0,
            "rate_c": 0.0,
            "shift": 0.0,
            "t_bus": 30,
            "tap": 1.0,
            "transformer": false
        },
        "33": {
            "angmax": 1.0471975511965976,
            "angmin": -1.0471975511965976,
            "b_fr": 0.021399999999999995,
            "b_to": 0.021399999999999995,
            "br_r": 0.0636,
            "br_status": 1,
            "br_x": 0.2,
            "f_bus": 8,
            "g_fr": 0.0,
            "g_to": 0.0,
            "index": 33,
            "rate_a": 1.4,
            "rate_b": 0.0,
            "rate_c": 0.0,
            "shift": 0.0,
            "t_bus": 28,
            "tap": 1.0,
            "transformer": false
        },
        "34": {
            "angmax": 1.0471975511965976,
            "angmin": -1.0471975511965976,
            "b_fr": 0.006500000000000001,
            "b_to": 0.006500000000000001,
            "br_r": 0.0169,
            "br_status": 1,
            "br_x": 0.0599,
            "f_bus": 6,
            "g_fr": 0.0,
            "g_to": 0.0,
            "index": 34,
            "rate_a": 1.49,
            "rate_b": 0.0,
            "rate_c": 0.0,
            "shift": 0.0,
            "t_bus": 28,
            "tap": 1.0,
            "transformer": false
        },
        "35": {
            "angmax": 1.0471975511965976,
            "angmin": -1.0471975511965976,
            "b_fr": -0.0,
            "b_to": -0.0,
            "br_r": 0.0,
            "br_status": 1,
            "br_x": 0.208,
            "f_bus": 6,
            "g_fr": 0.0,
            "g_to": 0.0,
            "index": 35,
            "rate_a": 1.42,
            "rate_b": 0.0,
            "rate_c": 0.0,
            "shift": 0.0,
            "t_bus": 9,
            "tap": 0.978,
            "transformer": true
        },
        "36": {
            "angmax": 1.0471975511965976,
            "angmin": -1.0471975511965976,
            "b_fr": -0.0,
            "b_to": -0.0,
            "br_r": 0.0,
            "br_status": 1,
            "br_x": 0.556,
            "f_bus": 6,
            "g_fr": 0.0,
            "g_to": 0.0,
            "index": 36,
            "rate_a": 0.53,
            "rate_b": 0.0,
            "rate_c": 0.0,
            "shift": 0.0,
            "t_bus": 10,
            "tap": 0.969,
            "transformer": true
        },
        "37": {
            "angmax": 1.0471975511965976,
            "angmin": -1.0471975511965976,
            "b_fr": -0.0,
            "b_to": -0.0,
            "br_r": 0.0,
            "br_status": 1,
            "br_x": 0.256,
            "f_bus": 4,
            "g_fr": 0.0,
            "g_to": 0.0,
            "index": 37,
            "rate_a": 1.15,
            "rate_b": 0.0,
            "rate_c": 0.0,
            "shift": 0.0,
            "t_bus": 12,
            "tap": 0.932,
            "transformer": true
        },
        "38": {
            "angmax": 1.0471975511965976,
            "angmin": -1.0471975511965976,
            "b_fr": -0.0,
            "b_to": -0.0,
            "br_r": 0.0,
            "br_status": 1,
            "br_x": 0.3960000000000001,
            "f_bus": 28,
            "g_fr": 0.0,
            "g_to": 0.0,
            "index": 38,
            "rate_a": 0.75,
            "rate_b": 0.0,
            "rate_c": 0.0,
            "shift": 0.0,
            "t_bus": 27,
            "tap": 0.968,
            "transformer": true
        },
        "39": {
            "angmax": 1.0471975511965976,
            "angmin": -1.0471975511965976,
            "b_fr": 0.0,
            "b_to": 0.0,
            "br_r": 0.0,
            "br_status": 1,
            "br_x": 0.208,
            "f_bus": 9,
            "g_fr": 0.0,
            "g_to": 0.0,
            "index": 39,
            "rate_a": 1.42,
            "rate_b": 0.0,
            "rate_c": 0.0,
            "shift": 0.0,
            "t_bus": 11,
            "tap": 1.0,
            "transformer": true
        },
        "4": {
            "angmax": 1.0471975511965976,
            "angmin": -1.0471975511965976,
            "b_fr": 0.004200000000000001,
            "b_to": 0.004200000000000001,
            "br_r": 0.013200000000000002,
            "br_status": 1,
            "br_x": 0.0379,
            "f_bus": 3,
            "g_fr": 0.0,
            "g_to": 0.0,
            "index": 4,
            "rate_a": 1.3499999999999996,
            "rate_b": 0.0,
            "rate_c": 0.0,
            "shift": 0.0,
            "t_bus": 4,
            "tap": 1.0,
            "transformer": false
        },
        "40": {
            "angmax": 1.0471975511965976,
            "angmin": -1.0471975511965976,
            "b_fr": 0.0,
            "b_to": 0.0,
            "br_r": 0.0,
            "br_status": 1,
            "br_x": 0.11,
            "f_bus": 9,
            "g_fr": 0.0,
            "g_to": 0.0,
            "index": 40,
            "rate_a": 2.67,
            "rate_b": 0.0,
            "rate_c": 0.0,
            "shift": 0.0,
            "t_bus": 10,
            "tap": 1.0,
            "transformer": true
        },
        "41": {
            "angmax": 1.0471975511965976,
            "angmin": -1.0471975511965976,
            "b_fr": 0.0,
            "b_to": 0.0,
            "br_r": 0.0,
            "br_status": 1,
            "br_x": 0.14,
            "f_bus": 12,
            "g_fr": 0.0,
            "g_to": 0.0,
            "index": 41,
            "rate_a": 2.1,
            "rate_b": 0.0,
            "rate_c": 0.0,
            "shift": 0.0,
            "t_bus": 13,
            "tap": 1.0,
            "transformer": true
        },
        "5": {
            "angmax": 1.0471975511965976,
            "angmin": -1.0471975511965976,
            "b_fr": 0.0209,
            "b_to": 0.0209,
            "br_r": 0.0472,
            "br_status": 1,
            "br_x": 0.19830000000000003,
            "f_bus": 2,
            "g_fr": 0.0,
            "g_to": 0.0,
            "index": 5,
            "rate_a": 1.44,
            "rate_b": 0.0,
            "rate_c": 0.0,
            "shift": 0.0,
            "t_bus": 5,
            "tap": 1.0,
            "transformer": false
        },
        "6": {
            "angmax": 1.0471975511965976,
            "angmin": -1.0471975511965976,
            "b_fr": 0.018700000000000005,
            "b_to": 0.018700000000000005,
            "br_r": 0.05809999999999999,
            "br_status": 1,
            "br_x": 0.1763,
            "f_bus": 2,
            "g_fr": 0.0,
            "g_to": 0.0,
            "index": 6,
            "rate_a": 1.39,
            "rate_b": 0.0,
            "rate_c": 0.0,
            "shift": 0.0,
            "t_bus": 6,
            "tap": 1.0,
            "transformer": false
        },
        "7": {
            "angmax": 1.0471975511965976,
            "angmin": -1.0471975511965976,
            "b_fr": 0.0045,
            "b_to": 0.0045,
            "br_r": 0.0119,
            "br_status": 1,
            "br_x": 0.0414,
            "f_bus": 4,
            "g_fr": 0.0,
            "g_to": 0.0,
            "index": 7,
            "rate_a": 1.4799999999999998,
            "rate_b": 0.0,
            "rate_c": 0.0,
            "shift": 0.0,
            "t_bus": 6,
            "tap": 1.0,
            "transformer": false
        },
        "8": {
            "angmax": 1.0471975511965976,
            "angmin": -1.0471975511965976,
            "b_fr": 0.0102,
            "b_to": 0.0102,
            "br_r": 0.046,
            "br_status": 1,
            "br_x": 0.116,
            "f_bus": 5,
            "g_fr": 0.0,
            "g_to": 0.0,
            "index": 8,
            "rate_a": 1.27,
            "rate_b": 0.0,
            "rate_c": 0.0,
            "shift": 0.0,
            "t_bus": 7,
            "tap": 1.0,
            "transformer": false
        },
        "9": {
            "angmax": 1.0471975511965976,
            "angmin": -1.0471975511965976,
            "b_fr": 0.008500000000000002,
            "b_to": 0.008500000000000002,
            "br_r": 0.026700000000000005,
            "br_status": 1,
            "br_x": 0.082,
            "f_bus": 6,
            "g_fr": 0.0,
            "g_to": 0.0,
            "index": 9,
            "rate_a": 1.4,
            "rate_b": 0.0,
            "rate_c": 0.0,
            "shift": 0.0,
            "t_bus": 7,
            "tap": 1.0,
            "transformer": false
        }
    },
    "bus": {
        "1": {
            "base_kv": 132.0,
            "bus_i": 1,
            "bus_type": 3,
            "index": 1,
            "va": 0.0,
            "vm": 1.0,
            "vmax": 1.00000001,
            "vmin": 0.99999999,
            "zone": 1
        },
        "10": {
            "base_kv": 33.0,
            "bus_i": 10,
            "bus_type": 1,
            "index": 10,
            "va": 0.0,
            "vm": 1.0,
            "vmax": 1.06,
            "vmin": 0.94,
            "zone": 1
        },
        "11": {
            "base_kv": 11.0,
            "bus_i": 11,
            "bus_type": 2,
            "index": 11,
            "va": 0.0,
            "vm": 1.0,
            "vmax": 1.06,
            "vmin": 0.94,
            "zone": 1
        },
        "12": {
            "base_kv": 33.0,
            "bus_i": 12,
            "bus_type": 1,
            "index": 12,
            "va": 0.0,
            "vm": 1.0,
            "vmax": 1.06,
            "vmin": 0.94,
            "zone": 1
        },
        "13": {
            "base_kv": 11.0,
            "bus_i": 13,
            "bus_type": 2,
            "index": 13,
            "va": 0.0,
            "vm": 1.0,
            "vmax": 1.06,
            "vmin": 0.94,
            "zone": 1
        },
        "14": {
            "base_kv": 33.0,
            "bus_i": 14,
            "bus_type": 1,
            "index": 14,
            "va": 0.0,
            "vm": 1.0,
            "vmax": 1.06,
            "vmin": 0.94,
            "zone": 1
        },
        "15": {
            "base_kv": 33.0,
            "bus_i": 15,
            "bus_type": 1,
            "index": 15,
            "va": 0.0,
            "vm": 1.0,
            "vmax": 1.06,
            "vmin": 0.94,
            "zone": 1
        },
        "16": {
            "base_kv": 33.0,
            "bus_i": 16,
            "bus_type": 1,
            "index": 16,
            "va": 0.0,
            "vm": 1.0,
            "vmax": 1.06,
            "vmin": 0.94,
            "zone": 1
        },
        "17": {
            "base_kv": 33.0,
            "bus_i": 17,
            "bus_type": 1,
            "index": 17,
            "va": 0.0,
            "vm": 1.0,
            "vmax": 1.06,
            "vmin": 0.94,
            "zone": 1
        },
        "18": {
            "base_kv": 33.0,
            "bus_i": 18,
            "bus_type": 1,
            "index": 18,
            "va": 0.0,
            "vm": 1.0,
            "vmax": 1.06,
            "vmin": 0.94,
            "zone": 1
        },
        "19": {
            "base_kv": 33.0,
            "bus_i": 19,
            "bus_type": 1,
            "index": 19,
            "va": 0.0,
            "vm": 1.0,
            "vmax": 1.06,
            "vmin": 0.94,
            "zone": 1
        },
        "2": {
            "base_kv": 132.0,
            "bus_i": 2,
            "bus_type": 2,
            "index": 2,
            "va": 0.0,
            "vm": 1.0,
            "vmax": 1.06,
            "vmin": 0.94,
            "zone": 1
        },
        "20": {
            "base_kv": 33.0,
            "bus_i": 20,
            "bus_type": 1,
            "index": 20,
            "va": 0.0,
            "vm": 1.0,
            "vmax": 1.06,
            "vmin": 0.94,
            "zone": 1
        },
        "21": {
            "base_kv": 33.0,
            "bus_i": 21,
            "bus_type": 1,
            "index": 21,
            "va": 0.0,
            "vm": 1.0,
            "vmax": 1.06,
            "vmin": 0.94,
            "zone": 1
        },
        "22": {
            "base_kv": 33.0,
            "bus_i": 22,
            "bus_type": 1,
            "index": 22,
            "va": 0.0,
            "vm": 1.0,
            "vmax": 1.06,
            "vmin": 0.94,
            "zone": 1
        },
        "23": {
            "base_kv": 33.0,
            "bus_i": 23,
            "bus_type": 1,
            "index": 23,
            "va": 0.0,
            "vm": 1.0,
            "vmax": 1.06,
            "vmin": 0.94,
            "zone": 1
        },
        "24": {
            "base_kv": 33.0,
            "bus_i": 24,
            "bus_type": 1,
            "index": 24,
            "va": 0.0,
            "vm": 1.0,
            "vmax": 1.06,
            "vmin": 0.94,
            "zone": 1
        },
        "25": {
            "base_kv": 33.0,
            "bus_i": 25,
            "bus_type": 1,
            "index": 25,
            "va": 0.0,
            "vm": 1.0,
            "vmax": 1.06,
            "vmin": 0.94,
            "zone": 1
        },
        "26": {
            "base_kv": 33.0,
            "bus_i": 26,
            "bus_type": 1,
            "index": 26,
            "va": 0.0,
            "vm": 1.0,
            "vmax": 1.06,
            "vmin": 0.94,
            "zone": 1
        },
        "27": {
            "base_kv": 33.0,
            "bus_i": 27,
            "bus_type": 1,
            "index": 27,
            "va": 0.0,
            "vm": 1.0,
            "vmax": 1.06,
            "vmin": 0.94,
            "zone": 1
        },
        "28": {
            "base_kv": 132.0,
            "bus_i": 28,
            "bus_type": 1,
            "index": 28,
            "va": 0.0,
            "vm": 1.0,
            "vmax": 1.06,
            "vmin": 0.94,
            "zone": 1
        },
        "29": {
            "base_kv": 33.0,
            "bus_i": 29,
            "bus_type": 1,
            "index": 29,
            "va": 0.0,
            "vm": 1.0,
            "vmax": 1.06,
            "vmin": 0.94,
            "zone": 1
        },
        "3": {
            "base_kv": 132.0,
            "bus_i": 3,
            "bus_type": 1,
            "index": 3,
            "va": 0.0,
            "vm": 1.0,
            "vmax": 1.06,
            "vmin": 0.94,
            "zone": 1
        },
        "30": {
            "base_kv": 33.0,
            "bus_i": 30,
            "bus_type": 1,
            "index": 30,
            "va": 0.0,
            "vm": 1.0,
            "vmax": 1.06,
            "vmin": 0.94,
            "zone": 1
        },
        "4": {
            "base_kv": 132.0,
            "bus_i": 4,
            "bus_type": 1,
            "index": 4,
            "va": 0.0,
            "vm": 1.0,
            "vmax": 1.06,
            "vmin": 0.94,
            "zone": 1
        },
        "5": {
            "base_kv": 132.0,
            "bus_i": 5,
            "bus_type": 2,
            "index": 5,
            "va": 0.0,
            "vm": 1.0,
            "vmax": 1.06,
            "vmin": 0.94,
            "zone": 1
        },
        "6": {
            "base_kv": 132.0,
            "bus_i": 6,
            "bus_type": 1,
            "index": 6,
            "va": 0.0,
            "vm": 1.0,
            "vmax": 1.06,
            "vmin": 0.94,
            "zone": 1
        },
        "7": {
            "base_kv": 132.0,
            "bus_i": 7,
            "bus_type": 1,
            "index": 7,
            "va": 0.0,
            "vm": 1.0,
            "vmax": 1.06,
            "vmin": 0.94,
            "zone": 1
        },
        "8": {
            "base_kv": 132.0,
            "bus_i": 8,
            "bus_type": 2,
            "index": 8,
            "va": 0.0,
            "vm": 1.0,
            "vmax": 1.06,
            "vmin": 0.94,
            "zone": 1
        },
        "9": {
            "base_kv": 1.0,
            "bus_i": 9,
            "bus_type": 1,
            "index": 9,
            "va": 0.0,
            "vm": 1.0,
            "vmax": 1.06,
            "vmin": 0.94,
            "zone": 1
        }
    },
    "correct_pm_network_data": true,
    "dcline": {},
    "gen": {
        "1": {
            "cost": [
                0.0,
                1842.1527999999998,
                0.0
            ],
            "gen_bus": 1,
            "gen_status": 1,
            "index": 1,
            "model": 2,
            "ncost": 3,
            "pg": 0.0,
            "pmax": 3.5100000001000002,
            "pmin": -1e-10,
            "qg": 0.0,
            "qmax": 1.7600000001,
            "qmin": -1.7600000001,
            "shutdown": 0.0,
            "startup": 0.0,
            "vg": 1.0
        },
        "2": {
            "cost": [
                0.0,
                5218.2254,
                0.0
            ],
            "gen_bus": 2,
            "gen_status": 1,
            "index": 2,
            "model": 2,
            "ncost": 3,
            "pg": 1.71,
            "pmax": 3.4200000001,
            "pmin": -1e-10,
            "qg": 0.0,
            "qmax": 1.7100000001,
            "qmin": -1.7100000001,
            "shutdown": 0.0,
            "startup": 0.0,
            "vg": 1.0
        },
        "3": {
            "cost": [
                0.0,
                0.0,
                0.0
            ],
            "gen_bus": 5,
            "gen_status": 1,
            "index": 3,
            "model": 2,
            "ncost": 3,
            "pg": 0.0,
            "pmax": 1e-10,
            "pmin": -1e-10,
            "qg": 0.0,
            "qmax": 0.40000000010000003,
            "qmin": -0.40000000010000003,
            "shutdown": 0.0,
            "startup": 0.0,
            "vg": 1.0
        },
        "4": {
            "cost": [
                0.0,
                0.0,
                0.0
            ],
            "gen_bus": 8,
            "gen_status": 1,
            "index": 4,
            "model": 2,
            "ncost": 3,
            "pg": 0.0,
            "pmax": 1e-10,
            "pmin": -1e-10,
            "qg": 0.0,
            "qmax": 2.3040000001000003,
            "qmin": -2.3040000001000003,
            "shutdown": 0.0,
            "startup": 0.0,
            "vg": 1.0
        },
        "5": {
            "cost": [
                0.0,
                0.0,
                0.0
            ],
            "gen_bus": 11,
            "gen_status": 1,
            "index": 5,
            "model": 2,
            "ncost": 3,
            "pg": 0.0,
            "pmax": 1e-10,
            "pmin": -1e-10,
            "qg": 0.0,
            "qmax": 0.2400000001,
            "qmin": -0.1800000001,
            "shutdown": 0.0,
            "startup": 0.0,
            "vg": 1.0
        },
        "6": {
            "cost": [
                0.0,
                0.0,
                0.0
            ],
            "gen_bus": 13,
            "gen_status": 1,
            "index": 6,
            "model": 2,
            "ncost": 3,
            "pg": 0.0,
            "pmax": 1e-10,
            "pmin": -1e-10,
            "qg": 0.0,
            "qmax": 0.2400000001,
            "qmin": -0.0600000001,
            "shutdown": 0.0,
            "startup": 0.0,
            "vg": 1.0
        }
    },
    "load": {
        "1": {
            "index": 1,
            "load_bus": 2,
            "pd": 0.3608,
            "qd": 0.127,
            "status": 1
        },
        "10": {
            "index": 10,
            "load_bus": 15,
            "pd": 0.1363,
            "qd": 0.025,
            "status": 1
        },
        "11": {
            "index": 11,
            "load_bus": 16,
            "pd": 0.0582,
            "qd": 0.018000000000000002,
            "status": 1
        },
        "12": {
            "index": 12,
            "load_bus": 17,
            "pd": 0.1496,
            "qd": 0.057999999999999996,
            "status": 1
        },
        "13": {
            "index": 13,
            "load_bus": 18,
            "pd": 0.053200000000000004,
            "qd": 0.009000000000000001,
            "status": 1
        },
        "14": {
            "index": 14,
            "load_bus": 19,
            "pd": 0.158,
            "qd": 0.034,
            "status": 1
        },
        "15": {
            "index": 15,
            "load_bus": 20,
            "pd": 0.0366,
            "qd": 0.006999999999999999,
            "status": 1
        },
        "16": {
            "index": 16,
            "load_bus": 21,
            "pd": 0.29100000000000004,
            "qd": 0.11199999999999999,
            "status": 1
        },
        "17": {
            "index": 17,
            "load_bus": 23,
            "pd": 0.053200000000000004,
            "qd": 0.016,
            "status": 1
        },
        "18": {
            "index": 18,
            "load_bus": 24,
            "pd": 0.1447,
            "qd": 0.067,
            "status": 1
        },
        "19": {
            "index": 19,
            "load_bus": 26,
            "pd": 0.0582,
            "qd": 0.023,
            "status": 1
        },
        "2": {
            "index": 2,
            "load_bus": 3,
            "pd": 0.039900000000000005,
            "qd": 0.012,
            "status": 1
        },
        "20": {
            "index": 20,
            "load_bus": 29,
            "pd": 0.039900000000000005,
            "qd": 0.009000000000000001,
            "status": 1
        },
        "21": {
            "index": 21,
            "load_bus": 30,
            "pd": 0.17629999999999998,
            "qd": 0.019,
            "status": 1
        },
        "3": {
            "index": 3,
            "load_bus": 4,
            "pd": 0.1264,
            "qd": 0.016,
            "status": 1
        },
        "4": {
            "index": 4,
            "load_bus": 5,
            "pd": 1.5663,
            "qd": 0.19,
            "status": 1
        },
        "5": {
            "index": 5,
            "load_bus": 7,
            "pd": 0.3791,
            "qd": 0.109,
            "status": 1
        },
        "6": {
            "index": 6,
            "load_bus": 8,
            "pd": 0.4988,
            "qd": 0.3,
            "status": 1
        },
        "7": {
            "index": 7,
            "load_bus": 10,
            "pd": 0.0964,
            "qd": 0.02,
            "status": 1
        },
        "8": {
            "index": 8,
            "load_bus": 12,
            "pd": 0.1862,
            "qd": 0.075,
            "status": 1
        },
        "9": {
            "index": 9,
            "load_bus": 14,
            "pd": 0.10310000000000001,
            "qd": 0.016,
            "status": 1
        }
    },
    "name": "",
    "ne_branch": {},
    "per_unit": true,
    "pm_log_level": 0,
    "pm_mip_solver": "cbc",
    "pm_mip_time_limit": Infinity,
    "pm_model": "ACPPowerModel",
    "pm_nl_solver": "ipopt",
    "pm_nl_time_limit": Infinity,
    "pm_solver": "ipopt",
    "pm_time_limit": Infinity,
    "pm_tol": 1e-08,
    "shunt": {
        "1": {
            "bs": 0.19,
            "gs": 0.0,
            "index": 1,
            "shunt_bus": 10,
            "status": true
        },
        "2": {
            "bs": 0.04300000000000001,
            "gs": 0.0,
            "index": 2,
            "shunt_bus": 24,
            "status": true
        }
    },
    "silence": true,
    "source_version": "2.0.0",
    "sourcetype": "matpower",
    "storage": {},
    "switch": {},
    "user_defined_params": {
        "gen_and_controllable_sgen": {
            "2": 2,
            "3": 3,
            "4": 4,
            "5": 5,
            "6": 6
        }
    }
}